Circuit: * SPICE3 file created from /home/karti/1bitadder.ext - technology: scmos

WARNING: Node GND! is floating.

Instance "m1035": Length shorter than recommended for a level 1 MOSFET.
Instance "m1035": Width narrower than recommended for a level 1 MOSFET.
Instance "m1034": Length shorter than recommended for a level 1 MOSFET.
Instance "m1034": Width narrower than recommended for a level 1 MOSFET.
Instance "m1033": Length shorter than recommended for a level 1 MOSFET.
Instance "m1033": Width narrower than recommended for a level 1 MOSFET.
Instance "m1032": Length shorter than recommended for a level 1 MOSFET.
Instance "m1032": Width narrower than recommended for a level 1 MOSFET.
Instance "m1031": Length shorter than recommended for a level 1 MOSFET.
Instance "m1031": Width narrower than recommended for a level 1 MOSFET.
Instance "m1030": Length shorter than recommended for a level 1 MOSFET.
Instance "m1030": Width narrower than recommended for a level 1 MOSFET.
Instance "m1023": Length shorter than recommended for a level 1 MOSFET.
Instance "m1023": Width narrower than recommended for a level 1 MOSFET.
Instance "m1022": Length shorter than recommended for a level 1 MOSFET.
Instance "m1022": Width narrower than recommended for a level 1 MOSFET.
Instance "m1021": Length shorter than recommended for a level 1 MOSFET.
Instance "m1021": Width narrower than recommended for a level 1 MOSFET.
Instance "m1020": Length shorter than recommended for a level 1 MOSFET.
Instance "m1020": Width narrower than recommended for a level 1 MOSFET.
Instance "m1019": Length shorter than recommended for a level 1 MOSFET.
Instance "m1019": Width narrower than recommended for a level 1 MOSFET.
Instance "m1018": Length shorter than recommended for a level 1 MOSFET.
Instance "m1018": Width narrower than recommended for a level 1 MOSFET.
Instance "m1017": Length shorter than recommended for a level 1 MOSFET.
Instance "m1017": Width narrower than recommended for a level 1 MOSFET.
Instance "m1016": Length shorter than recommended for a level 1 MOSFET.
Instance "m1016": Width narrower than recommended for a level 1 MOSFET.
Instance "m1015": Length shorter than recommended for a level 1 MOSFET.
Instance "m1015": Width narrower than recommended for a level 1 MOSFET.
Instance "m1014": Length shorter than recommended for a level 1 MOSFET.
Instance "m1014": Width narrower than recommended for a level 1 MOSFET.
Instance "m1013": Length shorter than recommended for a level 1 MOSFET.
Instance "m1013": Width narrower than recommended for a level 1 MOSFET.
Instance "m1012": Length shorter than recommended for a level 1 MOSFET.
Instance "m1012": Width narrower than recommended for a level 1 MOSFET.
Instance "m1029": Length shorter than recommended for a level 1 MOSFET.
Instance "m1029": Width narrower than recommended for a level 1 MOSFET.
Instance "m1028": Length shorter than recommended for a level 1 MOSFET.
Instance "m1028": Width narrower than recommended for a level 1 MOSFET.
Instance "m1027": Length shorter than recommended for a level 1 MOSFET.
Instance "m1027": Width narrower than recommended for a level 1 MOSFET.
Instance "m1026": Length shorter than recommended for a level 1 MOSFET.
Instance "m1026": Width narrower than recommended for a level 1 MOSFET.
Instance "m1025": Length shorter than recommended for a level 1 MOSFET.
Instance "m1025": Width narrower than recommended for a level 1 MOSFET.
Instance "m1024": Length shorter than recommended for a level 1 MOSFET.
Instance "m1024": Width narrower than recommended for a level 1 MOSFET.
Instance "m1011": Length shorter than recommended for a level 1 MOSFET.
Instance "m1011": Width narrower than recommended for a level 1 MOSFET.
Instance "m1010": Length shorter than recommended for a level 1 MOSFET.
Instance "m1010": Width narrower than recommended for a level 1 MOSFET.
Instance "m1009": Length shorter than recommended for a level 1 MOSFET.
Instance "m1009": Width narrower than recommended for a level 1 MOSFET.
Instance "m1008": Length shorter than recommended for a level 1 MOSFET.
Instance "m1008": Width narrower than recommended for a level 1 MOSFET.
Instance "m1007": Length shorter than recommended for a level 1 MOSFET.
Instance "m1007": Width narrower than recommended for a level 1 MOSFET.
Instance "m1006": Length shorter than recommended for a level 1 MOSFET.
Instance "m1006": Width narrower than recommended for a level 1 MOSFET.
Instance "m1005": Length shorter than recommended for a level 1 MOSFET.
Instance "m1005": Width narrower than recommended for a level 1 MOSFET.
Instance "m1004": Length shorter than recommended for a level 1 MOSFET.
Instance "m1004": Width narrower than recommended for a level 1 MOSFET.
Instance "m1003": Length shorter than recommended for a level 1 MOSFET.
Instance "m1003": Width narrower than recommended for a level 1 MOSFET.
Instance "m1002": Length shorter than recommended for a level 1 MOSFET.
Instance "m1002": Width narrower than recommended for a level 1 MOSFET.
Instance "m1001": Length shorter than recommended for a level 1 MOSFET.
Instance "m1001": Width narrower than recommended for a level 1 MOSFET.
Instance "m1000": Length shorter than recommended for a level 1 MOSFET.
Instance "m1000": Width narrower than recommended for a level 1 MOSFET.
Direct Newton iteration failed to find .op point.  (Use ".option noopiter" to skip.)
Starting Gmin stepping
Gmin = 10
Gmin = 1.07374
Gmin = 0.115292
Gmin = 0.0123794
Gmin = 0.00132923
Gmin = 0.000142725
Gmin = 1.5325e-005
Gmin = 1.6455e-006
Gmin = 1.76685e-007
Gmin = 1.89714e-008
Gmin = 2.03704e-009
Gmin = 2.18725e-010
Gmin = 2.34854e-011
Gmin = 2.52173e-012
Gmin = 2.70769e-013
Gmin = 0
Gmin stepping succeeded in finding the operating point.


Date: Sun May 01 19:50:58 2016
Total elapsed time: 0.174 seconds.

tnom = 27
temp = 27
method = modified trap
totiter = 6427
traniter = 5985
tranpoints = 1608
accept = 1455
rejected = 153
matrix size = 29
fillins = 12
solver = Normal
Thread vector: 11.3/6.6[3] 5.2/2.5[3] 2.4/1.8[2] 0.1/0.6[1]  2592/500
Matrix Compiler1: 4.18 KB object code size  0.7/0.4/[0.2]
Matrix Compiler2: 3.95 KB object code size  0.4/0.4/[0.4]


