Circuit: * SPICE3 file created from inverter.ext - technology: scmos

Instance "m1001": Length shorter than recommended for a level 1 MOSFET.
Instance "m1001": Width narrower than recommended for a level 1 MOSFET.
Instance "m1000": Length shorter than recommended for a level 1 MOSFET.
Instance "m1000": Width narrower than recommended for a level 1 MOSFET.
Direct Newton iteration for .op point succeeded.

Date: Sun May 01 18:20:14 2016
Total elapsed time: 0.085 seconds.

tnom = 27
temp = 27
method = modified trap
totiter = 2210
traniter = 2200
tranpoints = 1078
accept = 1069
rejected = 9
matrix size = 5
fillins = 0
solver = Normal
Matrix Compiler1: off  [0.0]/0.0/0.0
Matrix Compiler2: off  [0.0]/0.6/0.1


