Circuit: * SPICE3 file created from Nand2inp.ext - technology: scmos

WARNING: Node GND! is floating.

Instance "m1003": Length shorter than recommended for a level 1 MOSFET.
Instance "m1003": Width narrower than recommended for a level 1 MOSFET.
Instance "m1002": Length shorter than recommended for a level 1 MOSFET.
Instance "m1002": Width narrower than recommended for a level 1 MOSFET.
Instance "m1001": Length shorter than recommended for a level 1 MOSFET.
Instance "m1000": Length shorter than recommended for a level 1 MOSFET.
Direct Newton iteration for .op point succeeded.

Date: Sun May 01 18:20:25 2016
Total elapsed time: 0.105 seconds.

tnom = 27
temp = 27
method = modified trap
totiter = 2457
traniter = 2452
tranpoints = 1143
accept = 1119
rejected = 24
matrix size = 9
fillins = 0
solver = Normal
Matrix Compiler1: 368 bytes object code size  0.1/0.1/[0.0]
Matrix Compiler2: 823 bytes object code size  0.0/0.1/[0.0]


